34
Energy: -200
C 2.8364290715683187 2.6898077186848672 0.5123011667089956
C 2.2242064467570133 1.4464830540504943 0.4805175475321348
C 2.1195854649271832 3.8541880094279097 0.15104315074688737
C 0.8673851034315304 1.2871248851597945 0.0824006444480836
C 0.11208946054073429 2.4930985474801384 -0.15721204417636156
C 0.187135357473008 0.0009945005303810994 -3.802443510686023e-07
C 0.7792997465098765 3.754053466054799 -0.1586484561462637
C -1.2888458950597717 2.4262137715064025 -0.31601534094764183
C 2.239462463928992 -1.422750653082559 -0.48051826426083094
C 0.8810221809391551 -1.2778282702890011 -0.08240185655332351
C 2.8648713414141875 -2.6594941350886567 -0.512302604102021
C 0.13859399423138824 -2.49176532727582 0.15721086096392098
C -1.2342655551835222 -0.00656228934225261 -3.168195258163446e-07
C 2.16044903880661 -3.8314314982429325 -0.15104453174647775
C 0.8191746603518119 -3.7455546430506015 0.15864714578453026
C -1.2629730339362648 -2.4397819639072345 0.31601376137881393
C -1.9835609036707968 1.2204371090903077 -0.16514546516627326
C -1.9704712035837861 -1.2414611254834362 0.16514469964084913
C -3.409149563473648 1.1775965282332215 -0.1806619536330236
C -3.3964352402463547 -1.2137816246408337 0.18066042096138923
C -4.095898103993296 -0.02177793767100126 -9.610721109099961e-07
H 3.869310129177097 2.770465423759177 0.8356700548771633
H 2.7843959760147783 0.5866744134296751 0.8202232234822767
H 0.19537679303983863 4.6435223913778465 -0.377655835552738
H 2.6125730991073217 4.820898718054766 0.1575193209598914
H -1.8439799587774928 3.343353050206711 -0.49317026340346093
H -1.8083234144936333 -3.3627725769466417 0.49316866539524984
H -3.930785059651563 -2.1480327849081062 0.32350954940771737
H -5.181225762303073 -0.02754872286651141 -1.1722940159846087e-06
H -3.9534034972880527 2.106112631476424 -0.3235103788382173
H 3.8985520756011884 -2.7291644532238086 -0.8356717511237637
H 2.6636883211204445 -4.792844932873401 -0.15752035743136247
H 0.2447429867124625 -4.641182442393532 0.3776542428294304
H 2.7904772275263325 -0.5570337033013534 -0.8202250581056
