54
Energy: -200
C 3.248685240398173 -3.9924669174521945 1.1704652555581636
C 2.6043159045287156 -2.7968731738813495 0.8990618762029923
C 4.611543892906802 -4.167457145676577 0.8433930821646684
C 3.278207389072072 -1.7058589966783289 0.2749815315341619
C 5.319359950463938 -3.1057600410344115 0.31445514340558084
C 4.689093092183155 -1.8593154489609336 0.05783933086930143
C 5.456527921729488 -0.7264232778880251 -0.34204027866449876
C 2.645905929154856 -0.4308376297285332 -0.04447401233388934
C 4.877693084674374 0.5075852783919661 -0.4461498355704417
C -3.88095319005938 -1.5085300187228075 -1.4561940875378152
C -4.874555145544347 -2.3187964646997585 -1.9830561531492332
C -4.117703278099818 -0.6650955723018602 -0.3337070714421122
C -6.169588532853473 -2.3226766473359985 -1.422988753154056
C 0.3007153657456663 -1.3472441443901964 -0.3269550483029393
C -1.0636134269478497 -1.190398543200176 -0.32216588190426004
C 1.194917198607622 -0.2593704972861473 -0.08425814506176894
C -1.6701913428786432 0.043052821634421964 0.06669292408156617
C 3.4666000367497634 0.6948201128840545 -0.2867448361144928
C 0.6264726416643798 1.0293104314174715 0.061060904195993894
C 2.8688229746412106 2.0223202089134884 -0.41078673370845414
C -5.4681480725793445 -0.5956293159933035 0.1537930738887644
C -3.1032678860569702 0.19735303105721483 0.2639863189637503
C -6.4590614951526835 -1.4570760960607365 -0.38420994290151544
C -5.824131273993738 0.3929834959801939 1.127235437109419
C -0.7871498462349992 1.1241960190475104 0.3861436626826174
C -3.5443242122230783 1.2530752359411244 1.1091292019509482
C 1.4641672028815553 2.1973608542662078 -0.1977903942169233
C -1.3030848677619458 2.211435617174909 1.1619244471995844
C 3.6502835226941865 3.1588017144857985 -0.7404245430217036
C 0.9094482927839577 3.4860341321570285 -0.42959499518562627
C 3.08859224613376 4.415915951174653 -0.8944786878867883
C -4.909540332446519 1.3172222443757444 1.5407512537404127
C -2.6127742269768706 2.232061284895148 1.562977913573201
C 1.698881950203022 4.57561816536654 -0.760149326739234
H 5.103714397964253 -5.113552734867459 1.0438735529468652
H 6.383142812655174 -3.1971257586871604 0.113717865736433
H 1.579092729553211 -2.6797099180707415 1.2207173003465994
H 2.7039363899269944 -4.794420254806926 1.6586126166244075
H 6.522833459337893 -0.8496582952663745 -0.5073534622204663
H 5.508841849918382 1.3550654264777557 -0.6765016830374255
H -4.657521028196023 -2.939351028382091 -2.846743264550038
H -2.9203518111893803 -1.4817994671737407 -1.9515332419834728
H -7.465779493915558 -1.4014818804011588 0.020458036004731953
H -6.9386890644666686 -2.9707753138916084 -1.8303526254858329
H 0.707286222955192 -2.3146976784666284 -0.5860852726514987
H -1.6792029595250437 -2.0547169966908463 -0.522663888968889
H -5.193344497547456 2.110704598268849 2.2258140524177445
H -6.848764326507343 0.4235717978062369 1.4857229437090922
H -0.6223989012054922 2.967758009163544 1.5299563015406143
H -2.964311352272082 3.0074816948606777 2.2371833836252235
H 4.716307716395891 3.0551928269339057 -0.8932407760039823
H 3.7167185890526104 5.263732554847992 -1.1480450515220233
H 1.2385563692154538 5.54204324099463 -0.9385319878520818
H -0.16302675214161177 3.6156458297406346 -0.4015797785811885
