58
Energy: -200
C 6.76790001941332 0.9574820799821188 0.4795276650395683
C 5.541337117779774 0.34522059931920096 0.0746157726077129
C 7.975469397280633 0.3336069654528971 0.26086917284613864
C 4.290614001787284 0.9636082439028011 0.2822435957634348
C 5.590973159212429 -0.9460788330508576 -0.5663180441406783
C 3.0881212072523 0.3661491502143217 -0.10556661885240809
C 8.023588725446984 -0.9412855224976031 -0.3751997229695604
C 6.862972243556113 -1.5630532309076794 -0.7767805109085987
C 4.379618619867687 -1.5488403237894404 -0.9541638178594236
C 1.665067361400758 2.3481245009766267 0.5113774947249701
C 0.4396457445730956 2.97739806855883 0.5443351380545961
C 1.7813641590998837 0.9985852255059737 0.09645504328726505
C -0.7674253311274584 2.277561778610463 0.2949958746434496
C 3.1449606193190562 -0.9326933170757712 -0.7351578047021541
C 0.5870788697490906 0.27524483431222063 -0.18231406028764882
C 1.9138090506648073 -1.555014180992174 -1.1422171010393372
C -2.045915318557425 2.980783877154886 0.15797975055543453
C -0.7043672492208093 0.8717874073187175 0.08870409554028022
C -2.1498719719646817 4.382453302215481 0.32519176167504155
C -3.198812740237032 2.256158899631504 -0.26099353001714976
C -3.328315694126815 5.062237303893431 0.05161492903132148
C 0.7045490560701495 -0.9942607651646292 -0.866185873438783
C -1.9532031442743094 0.11405192684559773 0.0948400109645623
C -4.380491798624865 2.9750783777705845 -0.555845110172109
C -3.16238266869729 0.7864679725971991 -0.2634390730355972
C -4.449812509117481 4.35371503659764 -0.40950583097826776
C -2.0457700255554085 -1.273272556081264 0.5263054952870126
C -4.312092860284014 0.028245799324430727 -0.5394151606213525
C -1.0447384464857616 -1.9090133320770262 1.30667993620729
C -1.1552506119775212 -3.2515304849392854 1.6813800530326435
C -3.2329264940009956 -2.0214919488817396 0.2397171020030399
C -2.258565791862261 -4.0115342593934775 1.304434115063701
C -4.357243411571737 -1.3734373231300523 -0.3690307380802484
C -3.3274857591059925 -3.410303524204594 0.5920453633333731
C -5.509534028739488 -2.1369843715477304 -0.6923624843406744
C -4.501636319137136 -4.133878806586133 0.23928826545293477
C -5.565770637302788 -3.5024576130583416 -0.4026599610934608
H 6.729084501711246 1.9293971205990372 0.9636840922489297
H 8.900000953103094 0.8096268017448122 0.5716337053222803
H 4.288752926077382 1.9287379832755323 0.7768425468091544
H 8.984165330226595 -1.4188602508722863 -0.5400832651074103
H 6.89567017221254 -2.5351549593134193 -1.260706174303455
H 4.404153122643166 -2.523888067857378 -1.4343339959854564
H 2.553167573561982 2.9292439103747467 0.7265829290893665
H 0.4141893705543466 4.038213477049643 0.7574731823598921
H 1.9679880185542895 -2.492832321123372 -1.6873053103956686
H -1.2938683922629508 4.9516242314071945 0.664960302156447
H -3.377713848158015 6.137860187689529 0.18645041817448524
H -0.19744184810553128 -1.4851168041482357 -1.203763943783499
H -0.18277239277507804 -1.342353767540045 1.6308330499809967
H -5.264699818774289 2.448600039087168 -0.8922083966654286
H -5.3715733973746955 4.877684792970476 -0.6404825011981432
H -5.218365755388792 0.515578145087955 -0.8769452780494469
H -0.3660867282045345 -3.70147030389214 2.2752819218367493
H -2.32777281495157 -5.060021619354864 1.5780029454452313
H -6.3559112594410685 -1.6401060900341513 -1.1570565160540538
H -4.560585789181007 -5.188574197104405 0.49054003818510594
H -6.453125866326231 -4.071239514310768 -0.6618096213911852
