56
Energy: -200
C 6.836535725642684 -1.9649979152981008 0.24505588237253073
C 5.809443450931748 -0.983310129982794 0.11846327954027926
C 8.147739360063994 -1.6603179818243847 -0.05275802398310359
C 4.456711335620366 -1.266705209792358 0.4193747622805084
C 6.16556645230445 0.3394673861471028 -0.33151309907811016
C 3.4481694884674097 -0.3150764186042892 0.2956833849608304
C 8.49983577981426 -0.3534046689340055 -0.49537254169455025
C 7.534381250376676 0.6196966722141711 -0.6312238881879385
C 5.146053614490835 1.300783687785793 -0.46145301264180894
C 1.6298828977983872 -1.8071272700908638 1.1967672497433546
C 0.29173658462250024 -2.026950155426044 1.5185372814689586
C 2.0377180407441307 -0.59588589966144 0.6076776987931816
C -0.6816257330330933 -1.0843614410893745 1.1907941584697477
C 3.8078136991900324 1.009117365749855 -0.16742380357283143
C 1.0445444102963157 0.39402491559966746 0.33406576134856575
C 2.7912200609029667 2.003555595019304 -0.2952444993216358
C -0.34239814935598345 0.11196906031001344 0.5328891136539479
C -2.598992083755656 -1.418164661580896 -1.1069909066106072
C -3.175642280485563 -2.653774724085756 -1.4494518105808225
C -3.3298839861556853 -0.4232678802744093 -0.4419553944369645
C -4.501758593264814 -2.9225988482964684 -1.1524800243399285
C 1.45636272496472 1.7304578900435854 -0.06298620102242877
C -1.3669047857201009 1.1201180651843392 0.17075795976521047
C 0.45882584976436 2.7551596700785916 -0.09268570958050605
C -4.736515440452049 -0.6433120819801011 -0.2605187826966671
C -2.734229537584152 0.8694971443110859 -0.03469705516641388
C -5.318041535893853 -1.9170074494984368 -0.5732908376864684
C -5.5937151548596376 0.4265042574593347 0.16642630099437886
C -6.708411457557383 -2.1231205225655465 -0.33195542452839166
C -0.8865219736485269 2.49803177655047 0.06526629897905262
C -3.6781624100369443 1.9810439590741071 0.12400203428655707
C -1.8429032322133176 3.582101588082716 0.07917368156777482
C -6.957172877460544 0.18148445049580825 0.37142200723114066
C -5.027095553744911 1.7381593163482072 0.26999875594170775
C -7.5043640586764555 -1.096487129072287 0.14540102586931347
C -3.170913236022403 3.334206034453408 0.17282713251226078
H 6.566015901840611 -2.9614714342476773 0.5833016809603977
H 8.920115836078983 -2.4159069468957646 0.04890541763200709
H 4.222028872522427 -2.2742960272436457 0.745076663874787
H 9.536513263402039 -0.1293969447809601 -0.7258689276573016
H 7.799332579711912 1.6173954982657737 -0.9697174606213681
H 5.402749443771198 2.300058877732591 -0.8039242597368853
H 2.360538761866531 -2.5670062013207624 1.4457875307964079
H 0.002981843673750517 -2.9403023257205843 2.028542992709405
H -1.7151679326759983 -1.2798140480720068 1.4434368551403576
H -1.5597710710214088 -1.242622491770342 -1.3515396874495378
H 3.0880660764853056 3.0115714157558524 -0.5727211273062512
H -2.566732572205413 -3.4010095552974944 -1.948179134462467
H -4.940084012421007 -3.8868476097462326 -1.3918865853697882
H 0.7842947728488417 3.7806566906688084 -0.24722387239738047
H -7.136083533520999 -3.097311008122578 -0.5492968954701472
H -1.4618553760082662 4.59847579857385 0.048011633655995915
H -7.599716408794088 0.9970338778194626 0.6899520123067642
H -5.695279862721044 2.5735755530080713 0.46242049915998057
H -8.562223785430369 -1.2645989878367232 0.32009856321572594
H -3.8894445539540934 4.144815610776688 0.24930872784303804
