56
	Energy: -868235.0961322
C          6.83805       -1.95966        0.24555
C          5.81013       -0.98089        0.10397
C          8.14737       -1.66162       -0.06691
C          4.45930       -1.25758        0.41932
C          6.16338        0.33176       -0.37687
C          3.44995       -0.30880        0.28118
C          8.49664       -0.36467       -0.54002
C          7.53030        0.60531       -0.69105
C          5.14302        1.29009       -0.52140
C          1.63736       -1.78077        1.22572
C          0.30124       -1.99345        1.56045
C          2.04147       -0.58266        0.60791
C         -0.67419       -1.05815        1.21829
C          3.80664        1.00498       -0.21284
C          1.04656        0.40113        0.31896
C          2.78921        1.99647       -0.35599
C         -0.33911        0.12356        0.53243
C         -2.60568       -1.44174       -1.05981
C         -3.18435       -2.68447       -1.37174
C         -3.33252       -0.43256       -0.41208
C         -4.50859       -2.94668       -1.06081
C          1.45583        1.72858       -0.10961
C         -1.36590        1.12366        0.15478
C          0.45806        2.75246       -0.15544
C         -4.73799       -0.64851       -0.21722
C         -2.73445        0.86872       -0.03673
C         -5.32135       -1.92867       -0.49861
C         -5.59261        0.43040        0.19163
C         -6.71019       -2.12939       -0.24427
C         -0.88627        2.49892        0.01637
C         -3.67746        1.98352        0.10357
C         -1.84262        3.58310        0.01259
C         -6.95476        0.18999        0.41032
C         -5.02545        1.74396        0.26314
C         -7.50325       -1.09256        0.21554
C         -3.17001        3.33739        0.11981
H          6.56969       -2.94852        0.60706
H          8.92041       -2.41487        0.04640
H          4.22670       -2.25783        0.76831
H          9.53186       -0.14580       -0.78173
H          7.79309        1.59539       -1.05280
H          5.39753        2.28166       -0.88711
H          2.36959       -2.53510        1.48670
H          0.01570       -2.89547        2.09198
H         -1.70614       -1.24799        1.48150
H         -1.56800       -1.27163       -1.31453
H          3.08427        2.99819       -0.65716
H         -2.57848       -3.44242       -1.85784
H         -4.94832       -3.91588       -1.27647
H          0.78250        3.77433       -0.33426
H         -7.13913       -3.10805       -0.43772
H         -1.46184        4.59853       -0.04303
H         -7.59538        1.01232        0.71499
H         -5.69249        2.58341        0.44146
H         -8.56000       -1.25676        0.40038
H         -3.88811        4.14952        0.18307
